/*--------------------------------*- C++ -*----------------------------------*\
| =========                 |                                                 |
| \\      /  F ield         | OpenFOAM: The Open Source CFD Toolbox           |
|  \\    /   O peration     | Version:  v2012                                 |
|   \\  /    A nd           | Website:  www.openfoam.com                      |
|    \\/     M anipulation  |                                                 |
\*---------------------------------------------------------------------------*/
FoamFile
{
    version     2.0;
    format      ascii;
    class       dictionary;
    location    "system";
    object      fvSolution;
}
// * * * * * * * * * * * * * * * * * * * * * * * * * * * * * * * * * * * * * //

solvers
{
    psi 
    {
        solver          PBiCGStab;
        preconditioner  DILU;
        tolerance       1e-10;
        relTol          0;
    }

    p
    {
        solver          PCG;
        preconditioner  DIC;
        tolerance       1e-12;
        relTol          0.;
    }
}

PISO
{
    nCorrectors     -1; // Disables p-v coupling.
    nNonOrthogonalCorrectors 0;
    pRefCell        0;
    pRefValue       0;
}

velocityModel
{
    type vortex2D; 
    oscillation off;
}

levelSet
{
    narrowBand  
    {
      type  signChange;
    }
    
    profile
    {
      type  signedDistance;
    }


    implicitSurface 
    {
        type implicitPlane;
        position (10 0 0);
        normal (1 0 0);
        gradient 2;
    }

    phaseIndicator
    {
        type heaviside;
    }

    redistancer 
    {
        type PDE;
        deltaT      0.1;
        niterations 500;
        write   true;
        redistanceInterval 5;
    }

    sdplsSource
    {
        type noSource;
        discretization none;
    }
}


// ************************************************************************* //
